case14.m
function data=case14()

    data.baseMVA=100;   % Base MVA
    data.baseKV=100;    % Base Voltage in KV

    %           |Bus | Type  |  Vsp  | theta | PGi  |  QGi | PLi  |  QLi  |  Qmin  | Qmax

    data.bus = [ 1      1      1.060     0      0       0      0       0       0       0;
                 2      2      1.045     0     40    42.4   21.7    12.7     -40      50;
                 3      2      1.010     0      0    23.4   94.2    19.0       0      40;
                 4      3      1.0       0      0       0   47.8    -3.9       0       0;
                 5      3      1.0       0      0       0    7.6     1.6       0       0;
                 6      2      1.070     0      0    12.2   11.2     7.5      -6      24;
                 7      3      1.0       0      0       0    0.0     0.0       0       0;
                 8      2      1.090     0      0    17.4    0.0     0.0      -6      24;
                 9      3      1.0       0      0       0   29.5    16.6       0       0;
                 10     3      1.0       0      0       0    9.0     5.8       0       0;
                 11     3      1.0       0      0       0    3.5     1.8       0       0;
                 12     3      1.0       0      0       0    6.1     1.6       0       0;
                 13     3      1.0       0      0   	0   13.5     5.8       0       0;
                 14     3      1.0       0      0       0   14.9     5.0       0       0;];
    
    %            |From| TO  |   R   |    X    |    B/2    | X'mer |
    %            |Bus | Bus |   pu  |    pu   |    pu     | Tap(a)|
    data.line = [   1    2    0.0194    0.0592    0.0264         1
                    1    5    0.0540    0.2230    0.0246         1
                    2    3    0.0470    0.1980    0.0219         1
                    2    4    0.0581    0.1763    0.0170         1
                    2    5    0.0570    0.1739    0.0173         1
                    3    4    0.0670    0.1710    0.0064         1
                    4    5    0.0134    0.0421         0         1
                    4    7         0    0.2091         0    0.9780
                    4    9         0    0.5562         0    0.9690
                    5    6         0    0.2520         0    0.9320
                    6   11    0.0950    0.1989         0         1
                    6   12    0.1229    0.2558         0         1
                    6   13    0.0662    0.1303         0         1
                    7    8         0    0.1762         0         1
                    7    9         0    0.1100         0         1
                    9   10    0.0318    0.0845         0         1
                    9   14    0.1271    0.2704         0         1
                   10   11    0.0820    0.1921         0         1
                   12   13    0.2209    0.1999         0         1
                   13   14    0.1709    0.3480         0         1 ];

    %%-----  OPF Data  -----%%
    %% generator cost data
    %	1	startup	shutdown	n	x1	y1	...	xn	yn
    %	2	startup	shutdown	n	c(n-1)	...	c0
    data.gencost = [2     0     0    3    0.0430   20     0
                    2     0     0    3    0.2500   20     0
                    2     0     0    3    0.0100   40     0
                    2     0     0    3    0.0100   40     0
                    2     0     0    3    0.0100   40     0];
    data.genloc=[1 2 3 6 8];
end